 ****** HSPICE -- H-2013.03-SP2 32-BIT (Aug 26 2013) RHEL32 ******              
  Copyright (C) 2013 Synopsys, Inc. All Rights Reserved.                        
  Unpublished-rights reserved under US copyright laws.
  This program is protected by law and is subject to the
  terms and conditions of the license agreement from Synopsys.
  Use of this program is your acceptance to be bound by the
  license agreement. HSPICE is the trademark of Synopsys, Inc.
  Input File: iv_rbl.sp                                                         
  Command line options: iv_rbl.sp -o iv_rbl.lis
 lic:  
 lic: FLEXlm: v10.9.8 
 lic: USER:   109521018            HOSTNAME: cad.server 
 lic: HOSTID: 0025b3c97655         PID:      10226 
 lic: Using FLEXlm license file: 
 lic: 26585@lscic 
 lic: Checkout 1 hspice 
 lic: License/Maintenance for hspice will expire on 14-may-2022/2020.03 
 lic: 135(in_use)/250(total) FLOATING license(s) on SERVER 26585@lscic 
 lic:   
 Init: read install configuration file: /usr/cad/synopsys/hspice/cur/hspice/meta.cfg
1****** HSPICE -- H-2013.03-SP2 32-BIT (Aug 26 2013) RHEL32 ******              
 ******  
 .tspc

  ******  circuit name directory
 circuit number to circuit name directory
   number circuitname                     definition         multiplier
        0 main circuit
        1 xskew_or0.                      skew_or            1.00 
        2 xskew_or1.                      skew_or            1.00 
        3 xskew_or2.                      skew_or            1.00 
        4 xskew_or3.                      skew_or            1.00 
        5 xskew_and0.                     skew_and           1.00 
        6 xskew_and1.                     skew_and           1.00 
        7 xskew_and2.                     skew_and           1.00 
        8 xskew_and3.                     skew_and           1.00 
        9 xnor0.                          nor2               1.00 
       10 xnor1.                          nor2               1.00 
       11 xnor2.                          nor2               1.00 
       12 xnor3.                          nor2               1.00 
       13 xlat_out0.                      latch_senp         1.00 
       14 xlat_and0.                      latch_senp         1.00 
       15 xlat_or0.                       latch_senp         1.00 
       16 xlat_out1.                      latch_senp         1.00 
       17 xlat_and1.                      latch_senp         1.00 
       18 xlat_or1.                       latch_senp         1.00 
       19 xlat_out2.                      latch_senp         1.00 
       20 xlat_and2.                      latch_senp         1.00 
       21 xlat_or2.                       latch_senp         1.00 
       22 xlat_out3.                      latch_senp         1.00 
       23 xlat_and3.                      latch_senp         1.00 
       24 xlat_or3.                       latch_senp         1.00 
       25 xlat_out0.xmux.                 mux                1.00 
       26 xlat_out0.xbuf0.                buf0               1.00 
       27 xlat_and0.xmux.                 mux                1.00 
       28 xlat_and0.xbuf0.                buf0               1.00 
       29 xlat_or0.xmux.                  mux                1.00 
       30 xlat_or0.xbuf0.                 buf0               1.00 
       31 xlat_out1.xmux.                 mux                1.00 
       32 xlat_out1.xbuf0.                buf0               1.00 
       33 xlat_and1.xmux.                 mux                1.00 
       34 xlat_and1.xbuf0.                buf0               1.00 
       35 xlat_or1.xmux.                  mux                1.00 
       36 xlat_or1.xbuf0.                 buf0               1.00 
       37 xlat_out2.xmux.                 mux                1.00 
       38 xlat_out2.xbuf0.                buf0               1.00 
       39 xlat_and2.xmux.                 mux                1.00 
       40 xlat_and2.xbuf0.                buf0               1.00 
       41 xlat_or2.xmux.                  mux                1.00 
       42 xlat_or2.xbuf0.                 buf0               1.00 
       43 xlat_out3.xmux.                 mux                1.00 
       44 xlat_out3.xbuf0.                buf0               1.00 
       45 xlat_and3.xmux.                 mux                1.00 
       46 xlat_and3.xbuf0.                buf0               1.00 
       47 xlat_or3.xmux.                  mux                1.00 
       48 xlat_or3.xbuf0.                 buf0               1.00 
  **warning** (iv_rbl.sp:98) value of resistance 0:r1 defined less than rm_rmin (1.000000e-05) is shorted in circuit.
  
 **warning**  No DC path to ground from node        0:pre              defined in subckt 0               ; Connected by HSPICE with gdcpath


      
 **info** set option symb=1 internally to help for convergence.
 *****************************************************************
 ******  option summary
 ******
 runlvl  = 3         bypass  = 2         
  Opening plot unit= 15
 file=iv_rbl.pa0

 ******  
 .tspc

  ******  dc transfer curves tnom=  25.000 temp=  25.000 *****
x

        volt    current    
                   vpos    
  100.00000m     -2.4267u  
  150.00000m    657.0551u  
  200.00000m      1.2448m  
  250.00000m      1.7610m  
  300.00000m      2.2060m  
  350.00000m      2.5804m  
  400.00000m      2.8853m  
  450.00000m      3.1225m  
  500.00000m      3.2956m  
  550.00000m      3.4130m  
  600.00000m      3.4908m  
  650.00000m      3.5458m  
  700.00000m      3.5881m  
  750.00000m      3.6226m  
  800.00000m      3.6518m  
  850.00000m      3.6771m  
  900.00000m      3.6994m  
  950.00000m      3.7194m  
    1.00000       3.7374m  
y
1****** HSPICE -- H-2013.03-SP2 32-BIT (Aug 26 2013) RHEL32 ******              
 ******  
 .tspc

  ******  operating point information tnom=  25.000 temp=  25.000 *****
 ***** operating point status is all       simulation time is     0.     
     node    =voltage       node    =voltage       node    =voltage

 + 0:bl_and0 = 999.7267m  0:bl_and1 = 999.7267m  0:bl_and2 = 999.7267m
 + 0:bl_and3 = 999.7267m  0:bl_nand0=   8.4205u  0:bl_nand1=   8.4205u
 + 0:bl_nand2=   8.4205u  0:bl_nand3=   8.4205u  0:bl_nor0 =   1.4175u
 + 0:bl_nor1 =   1.4175u  0:bl_nor2 =   1.4175u  0:bl_nor3 =   1.4175u
 + 0:bl_or0  = 999.8934m  0:bl_or1  = 999.8934m  0:bl_or2  = 999.8934m
 + 0:bl_or3  = 999.8934m  0:bl_xor0 =   2.7570u  0:bl_xor1 =   2.7570u
 + 0:bl_xor2 =   2.7570u  0:bl_xor3 =   2.7570u  0:lat_and0= 999.9772m
 + 0:lat_and1= 999.9772m  0:lat_and2= 999.9772m  0:lat_and3= 999.9772m
 + 0:lat_or0 = 999.9877m  0:lat_or1 = 999.9877m  0:lat_or2 = 999.9877m
 + 0:lat_or3 = 999.9877m  0:lat_out0= 528.1920m  0:lat_out1= 528.1920m
 + 0:lat_out2= 528.1920m  0:lat_out3= 528.1920m  0:pre     = 515.2728m
 + 0:q0      =   1.0000   0:q1      =   1.0000   0:q2      =   1.0000 
 + 0:q3      =   1.0000   0:rbl0    = 100.0000m  0:rbl0_   = 486.4797m
 + 0:rbl1    = 100.0000m  0:rbl1_   = 486.4797m  0:rbl2    = 100.0000m
 + 0:rbl2_   = 486.4797m  0:rbl3    = 100.0000m  0:rbl3_   = 486.4797m
 + 0:rd0     = 224.4295m  0:rd1     = 223.7353m  0:rd2     = 223.2322m
 + 0:rd3     = 224.0066m  0:rwl     =   1.0000   0:st_on00 =   1.0000 
 + 0:st_on01 =   0.       0:st_on10 =   1.0000   0:st_on11 =   0.     
 + 0:st_on20 =   1.0000   0:st_on21 =   0.       0:st_on30 =   1.0000 
 + 0:st_on31 =   0.       0:tri_out = 100.0000m  0:vdd     =   1.0000 
 + 0:vin     = 400.0000m  0:vss     =   0.       9:iu      = 164.6549m
 +10:iu      = 164.6549m 11:iu      = 164.6549m 12:iu      = 164.6549m
 +13:ln      = 486.4807m 14:ln      = 999.7818m 15:ln      = 999.9121m
 +16:ln      = 486.4807m 17:ln      = 999.7818m 18:ln      = 999.9121m
 +19:ln      = 486.4807m 20:ln      = 999.7818m 21:ln      = 999.9121m
 +22:ln      = 486.4807m 23:ln      = 999.7818m 24:ln      = 999.9121m
 +25:ln      =  99.9220m 26:i_0     = 502.0397m 27:ln      =  99.9242m
 +28:i_0     =   7.7207u 29:ln      =  99.9242m 30:i_0     =   7.7022u
 +31:ln      =  99.9220m 32:i_0     = 502.0397m 33:ln      =  99.9242m
 +34:i_0     =   7.7207u 35:ln      =  99.9242m 36:i_0     =   7.7022u
 +37:ln      =  99.9220m 38:i_0     = 502.0397m 39:ln      =  99.9242m
 +40:i_0     =   7.7207u 41:ln      =  99.9242m 42:i_0     =   7.7022u
 +43:ln      =  99.9220m 44:i_0     = 502.0397m 45:ln      =  99.9242m
 +46:i_0     =   7.7207u 47:ln      =  99.9242m 48:i_0     =   7.7022u


 **** voltage sources

 subckt                                                              
 element   0:vdd       0:vin       0:vpos      0:vq0       0:vq1     
  volts       1.0000    400.0000m   100.0000m     1.0000      1.0000 
  current  -290.8915u    -2.8877m     2.8853m   -11.4425n    -5.5309n
  power     290.8915u     1.1551m  -288.5294u    11.4425n     5.5309n

 subckt                                                              
 element   0:vq2       0:vq3       0:vrwl      0:vss       0:vst_on00
  volts       1.0000      1.0000      1.0000      0.          1.0000 
  current    -2.7756n    -1.4191n   -41.8374n   290.8939u    -1.0760n
  power       2.7756n     1.4191n    41.8374n     0.          1.0760n

 subckt                                                              
 element   0:vst_on01  0:vst_on10  0:vst_on11  0:vst_on20  0:vst_on21
  volts       0.          1.0000      0.          1.0000      0.     
  current   208.2961f  -449.6632p   208.2961f  -232.6335p   208.2961f
  power       0.        449.6632p     0.        232.6335p     0.     

 subckt                          
 element   0:vst_on30  0:vst_on31
  volts       1.0000      0.     
  current  -605.1253p   208.2961f
  power     605.1253p     0.     

     total voltage source power dissipation=    1.1575m       watts




 **** mosfets


 subckt                                                              
 element   0:mn01      0:mn02      0:mn11      0:mn12      0:mn21    
 model     0:nch.10    0:nch.10    0:nch.10    0:nch.10    0:nch.10  
 region        Linear      Linear      Linear      Linear      Linear
  id       -394.1850u  -394.1808u  -394.1850u  -394.1808u  -394.1850u
  ibs      -224.4563f  -400.0267f  -224.4563f  -400.0267f  -224.4563f
  ibd      -100.0261f  -224.4563f  -100.0261f  -224.4563f  -100.0261f
  vgs       775.5705m   600.0000m   775.5705m   600.0000m   775.5705m
  vds      -124.4295m  -175.5705m  -124.4295m  -175.5705m  -124.4295m
  vbs      -224.4295m  -400.0000m  -224.4295m  -400.0000m  -224.4295m
  vth       325.2849m   342.8257m   325.2849m   342.8257m   325.2849m
  vdsat     384.3878m   309.2416m   384.3878m   309.2416m   384.3878m
  vod       450.2856m   257.1743m   450.2856m   257.1743m   450.2856m
  beta        8.6277m     9.1193m     8.6277m     9.1193m     8.6277m
  gam eff   323.8919m   323.8919m   323.8919m   323.8919m   323.8919m
  gm        524.1457u   909.8697u   524.1457u   909.8697u   524.1457u
  gds         2.5787m     1.4545m     2.5787m     1.4545m     2.5787m
  gmb       100.7644u   142.0441u   100.7644u   142.0441u   100.7644u
  cdtot       8.3083f     7.2769f     8.3083f     7.2769f     8.3083f
  cgtot       7.4447f     7.0127f     7.4447f     7.0127f     7.4447f
  cstot       8.7397f     4.8407f     8.7397f     4.8407f     8.7397f
  cbtot       3.8853f     3.6164f     3.8853f     3.6164f     3.8853f
  cgs         2.7057f     1.5908f     2.7057f     1.5908f     2.7057f
  cgd         4.7355f     5.3628f     4.7355f     5.3628f     4.7355f



 subckt                                                              
 element   0:mn22      0:mn31      0:mn32      0:mn03      0:mn04    
 model     0:nch.10    0:nch.10    0:nch.10    0:nch.10    0:nch.10  
 region        Linear      Linear      Linear      Linear      Linear
  id       -394.1808u  -394.1850u  -394.1808u  -191.4824u  -191.4804u
  ibs      -400.0267f  -224.4563f  -400.0267f  -223.7487f  -400.0135f
  ibd      -224.4563f  -100.0261f  -224.4563f  -100.0132f  -223.7487f
  vgs       600.0000m   775.5705m   600.0000m   776.2647m   600.0000m
  vds      -175.5705m  -124.4295m  -175.5705m  -123.7353m  -176.2647m
  vbs      -400.0000m  -224.4295m  -400.0000m  -223.7353m  -400.0000m
  vth       342.8257m   325.2849m   342.8257m   327.7046m   345.1038m
  vdsat     309.2416m   384.3878m   309.2416m   387.2631m   313.6773m
  vod       257.1743m   450.2856m   257.1743m   448.5601m   254.8962m
  beta        9.1193m     8.6277m     9.1193m     4.1916m     4.3792m
  gam eff   323.8919m   323.8919m   323.8919m   324.9930m   324.9930m
  gm        909.8697u   524.1457u   909.8697u   267.1069u   454.7405u
  gds         1.4545m     2.5787m     1.4545m     1.2634m   707.2114u
  gmb       142.0441u   100.7644u   142.0441u    50.8462u    71.1617u
  cdtot       7.2769f     8.3083f     7.2769f     4.1634f     3.6588f
  cgtot       7.0127f     7.4447f     7.0127f     3.7382f     3.5181f
  cstot       4.8407f     8.7397f     4.8407f     4.3776f     2.4579f
  cbtot       3.6164f     3.8853f     3.6164f     1.9716f     1.8352f
  cgs         1.5908f     2.7057f     1.5908f     1.3783f   814.4408a
  cgd         5.3628f     4.7355f     5.3628f     2.3564f     2.6712f



 subckt                                                              
 element   0:mn13      0:mn14      0:mn23      0:mn24      0:mn33    
 model     0:nch.10    0:nch.10    0:nch.10    0:nch.10    0:nch.10  
 region        Linear      Linear      Linear      Linear      Linear
  id       -191.4824u  -191.4804u  -191.4824u  -191.4804u  -191.4824u
  ibs      -223.7487f  -400.0135f  -223.7487f  -400.0135f  -223.7487f
  ibd      -100.0132f  -223.7487f  -100.0132f  -223.7487f  -100.0132f
  vgs       776.2647m   600.0000m   776.2647m   600.0000m   776.2647m
  vds      -123.7353m  -176.2647m  -123.7353m  -176.2647m  -123.7353m
  vbs      -223.7353m  -400.0000m  -223.7353m  -400.0000m  -223.7353m
  vth       327.7046m   345.1038m   327.7046m   345.1038m   327.7046m
  vdsat     387.2631m   313.6773m   387.2631m   313.6773m   387.2631m
  vod       448.5601m   254.8962m   448.5601m   254.8962m   448.5601m
  beta        4.1916m     4.3792m     4.1916m     4.3792m     4.1916m
  gam eff   324.9930m   324.9930m   324.9930m   324.9930m   324.9930m
  gm        267.1069u   454.7405u   267.1069u   454.7405u   267.1069u
  gds         1.2634m   707.2114u     1.2634m   707.2114u     1.2634m
  gmb        50.8462u    71.1617u    50.8462u    71.1617u    50.8462u
  cdtot       4.1634f     3.6588f     4.1634f     3.6588f     4.1634f
  cgtot       3.7382f     3.5181f     3.7382f     3.5181f     3.7382f
  cstot       4.3776f     2.4579f     4.3776f     2.4579f     4.3776f
  cbtot       1.9716f     1.8352f     1.9716f     1.8352f     1.9716f
  cgs         1.3783f   814.4408a     1.3783f   814.4408a     1.3783f
  cgd         2.3564f     2.6712f     2.3564f     2.6712f     2.3564f



 subckt                                                              
 element   0:mn34      0:mn05      0:mn06      0:mn15      0:mn16    
 model     0:nch.10    0:nch.15    0:nch.15    0:nch.15    0:nch.15  
 region        Linear      Linear      Linear      Linear      Linear
  id       -191.4804u   -91.1146u   -91.1136u   -91.1146u   -91.1136u
  ibs      -400.0135f  -223.2391f  -400.0069f  -223.2391f  -400.0069f
  ibd      -223.7487f  -100.0067f  -223.2391f  -100.0067f  -223.2391f
  vgs       600.0000m   776.7678m   600.0000m   776.7678m   600.0000m
  vds      -176.2647m  -123.2322m  -176.7678m  -123.2322m  -176.7678m
  vbs      -400.0000m  -223.2322m  -400.0000m  -223.2322m  -400.0000m
  vth       345.1038m   326.6534m   343.7528m   326.6534m   343.7528m
  vdsat     313.6773m   393.9833m   321.6159m   393.9833m   321.6159m
  vod       254.8962m   450.1144m   256.2472m   450.1144m   256.2472m
  beta        4.3792m     1.9657m     2.0290m     1.9657m     2.0290m
  gam eff   324.9930m   325.8750m   325.8750m   325.8750m   325.8750m
  gm        454.7405u   134.5567u   222.4593u   134.5567u   222.4593u
  gds       707.2114u   606.0089u   339.0154u   606.0089u   339.0154u
  gmb        71.1617u    23.1820u    32.6547u    23.1820u    32.6547u
  cdtot       3.6588f     2.0958f     1.8503f     2.0958f     1.8503f
  cgtot       3.5181f     1.8847f     1.7737f     1.8847f     1.7737f
  cstot       2.4579f     2.2078f     1.2709f     2.2078f     1.2709f
  cbtot       1.8352f     1.0108f   941.9074a     1.0108f   941.9074a
  cgs       814.4408a   707.6537a   424.6555a   707.6537a   424.6555a
  cgd         2.6712f     1.1720f     1.3293f     1.1720f     1.3293f



 subckt                                                              
 element   0:mn25      0:mn26      0:mn35      0:mn36      0:mn07    
 model     0:nch.15    0:nch.15    0:nch.15    0:nch.15    0:nch.20  
 region        Linear      Linear      Linear      Linear      Linear
  id        -91.1146u   -91.1136u   -91.1146u   -91.1136u   -45.1546u
  ibs      -223.2391f  -400.0069f  -223.2391f  -400.0069f  -224.0102f
  ibd      -100.0067f  -223.2391f  -100.0067f  -223.2391f  -100.0035f
  vgs       776.7678m   600.0000m   776.7678m   600.0000m   775.9934m
  vds      -123.2322m  -176.7678m  -123.2322m  -176.7678m  -124.0066m
  vbs      -223.2322m  -400.0000m  -223.2322m  -400.0000m  -224.0066m
  vth       326.6534m   343.7528m   326.6534m   343.7528m   315.2278m
  vdsat     393.9833m   321.6159m   393.9833m   321.6159m   404.3505m
  vod       450.1144m   256.2472m   450.1144m   256.2472m   460.7656m
  beta        1.9657m     2.0290m     1.9657m     2.0290m   938.5665u
  gam eff   325.8750m   325.8750m   325.8750m   325.8750m   325.8466m
  gm        134.5567u   222.4593u   134.5567u   222.4593u    65.4883u
  gds       606.0089u   339.0154u   606.0089u   339.0154u   299.7088u
  gmb        23.1820u    32.6547u    23.1820u    32.6547u    11.0168u
  cdtot       2.0958f     1.8503f     2.0958f     1.8503f     1.0724f
  cgtot       1.8847f     1.7737f     1.8847f     1.7737f   956.9882a
  cstot       2.2078f     1.2709f     2.2078f     1.2709f     1.1366f
  cbtot       1.0108f   941.9074a     1.0108f   941.9074a   526.3428a
  cgs       707.6537a   424.6555a   707.6537a   424.6555a   360.5129a
  cgd         1.1720f     1.3293f     1.1720f     1.3293f   592.2536a



 subckt                                                              
 element   0:mn08      0:mn17      0:mn18      0:mn27      0:mn28    
 model     0:nch.20    0:nch.20    0:nch.20    0:nch.20    0:nch.20  
 region        Linear      Linear      Linear      Linear      Linear
  id        -45.1541u   -45.1546u   -45.1541u   -45.1546u   -45.1541u
  ibs      -400.0036f  -224.0102f  -400.0036f  -224.0102f  -400.0036f
  ibd      -224.0102f  -100.0035f  -224.0102f  -100.0035f  -224.0102f
  vgs       600.0000m   775.9934m   600.0000m   775.9934m   600.0000m
  vds      -175.9934m  -124.0066m  -175.9934m  -124.0066m  -175.9934m
  vbs      -400.0000m  -224.0066m  -400.0000m  -224.0066m  -400.0000m
  vth       332.0808m   315.2278m   332.0808m   315.2278m   332.0808m
  vdsat     330.5794m   404.3505m   330.5794m   404.3505m   330.5794m
  vod       267.9192m   460.7656m   267.9192m   460.7656m   267.9192m
  beta      968.7831u   938.5665u   968.7831u   938.5665u   968.7831u
  gam eff   325.8466m   325.8466m   325.8466m   325.8466m   325.8466m
  gm        106.9991u    65.4883u   106.9991u    65.4883u   106.9991u
  gds       171.8018u   299.7088u   171.8018u   299.7088u   171.8018u
  gmb        15.3015u    11.0168u    15.3015u    11.0168u    15.3015u
  cdtot     949.5038a     1.0724f   949.5038a     1.0724f   949.5038a
  cgtot     903.0420a   956.9882a   903.0420a   956.9882a   903.0420a
  cstot     672.9204a     1.1366f   672.9204a     1.1366f   672.9204a
  cbtot     491.8361a   526.3428a   491.8361a   526.3428a   491.8361a
  cgs       221.4446a   360.5129a   221.4446a   360.5129a   221.4446a
  cgd       670.4253a   592.2536a   670.4253a   592.2536a   670.4253a



 subckt                                                              
 element   0:mn37      0:mn38      0:mn200     0:mn201     0:mn210   
 model     0:nch.20    0:nch.20    0:nch.15    0:nch.25    0:nch.20  
 region        Linear      Linear      Linear      Cutoff      Linear
  id        -45.1546u   -45.1541u     0.          0.          0.     
  ibs      -224.0102f  -400.0036f  -100.0091f  -100.0014f  -100.0047f
  ibd      -100.0035f  -224.0102f  -100.0091f  -100.0014f  -100.0047f
  vgs       775.9934m   600.0000m   900.0000m  -100.0000m   900.0000m
  vds      -124.0066m  -175.9934m     0.          0.          0.     
  vbs      -224.0066m  -400.0000m  -100.0000m  -100.0000m  -100.0000m
  vth       315.2278m   332.0808m   399.2843m   331.4325m   401.3005m
  vdsat     404.3505m   330.5794m   286.4577m    43.7567m   299.7992m
  vod       460.7656m   267.9192m   500.7157m  -431.4325m   498.6995m
  beta      938.5665u   968.7831u     7.2898m   805.7312u     3.3888m
  gam eff   325.8466m   325.8466m   349.0000m   320.8777m   348.9074m
  gm         65.4883u   106.9991u     0.          0.          0.     
  gds       299.7088u   171.8018u     2.2786m   327.2605p     1.0872m
  gmb        11.0168u    15.3015u     0.          0.          0.     
  cdtot       1.0724f   949.5038a     2.1645f   128.0537a     1.0478f
  cgtot     956.9882a   903.0420a     1.2120f    93.9886a   612.2542a
  cstot       1.1366f   672.9204a     1.6638f   128.0374a   829.3343a
  cbtot     526.3428a   491.8361a     1.2127f   188.6275a   626.9433a
  cgs       360.5129a   221.4446a   641.5618a    40.3633a   321.1735a
  cgd       592.2536a   670.4253a   556.4965a    40.3433a   282.3865a



 subckt                                                              
 element   0:mn211     0:mn220     0:mn221     0:mn230     0:mn231   
 model     0:nch.25    0:nch.20    0:nch.25    0:nch.25    0:nch.25  
 region        Cutoff      Linear      Cutoff      Linear      Cutoff
  id          0.          0.          0.          0.          0.     
  ibs      -100.0014f  -100.0025f  -100.0014f  -100.0014f  -100.0014f
  ibd      -100.0014f  -100.0025f  -100.0014f  -100.0014f  -100.0014f
  vgs      -100.0000m   900.0000m  -100.0000m   900.0000m  -100.0000m
  vds         0.          0.          0.          0.          0.     
  vbs      -100.0000m  -100.0000m  -100.0000m  -100.0000m  -100.0000m
  vth       331.4325m   375.8523m   331.4325m   331.4325m   331.4325m
  vdsat      43.7567m   313.6431m    43.7567m   338.8164m    43.7567m
  vod      -431.4325m   524.1477m  -431.4325m   568.5675m  -431.4325m
  beta      805.7312u     1.5366m   805.7312u   691.9950u   805.7312u
  gam eff   320.8777m   348.4423m   320.8777m   320.8777m   320.8777m
  gm          0.          0.          0.          0.          0.     
  gds       327.2605p   530.3346u   327.2605p   265.3333u   327.2605p
  gmb         0.          0.          0.          0.          0.     
  cdtot     128.0537a   563.8453a   128.0537a   294.6657a   128.0537a
  cgtot      93.9886a   312.8420a    93.9886a   163.0147a    93.9886a
  cstot     128.0374a   437.1855a   128.0374a   231.4020a   128.0374a
  cbtot     188.6275a   334.3944a   188.6275a   187.1504a   188.6275a
  cgs        40.3633a   163.5117a    40.3633a    83.8348a    40.3633a
  cgd        40.3433a   145.1005a    40.3433a    77.0120a    40.3433a



 subckt                                                    xskew_or0 
 element   0:ml_rbl0   0:ml_rbl1   0:ml_rbl2   0:ml_rbl3   1:mpor0   
 model     0:nch.10    0:nch.10    0:nch.15    0:nch.20    0:pch.15  
 region        Cutoff      Cutoff      Cutoff      Cutoff      Linear
  id          1.3033u   629.8359n   316.4230n   224.2641n    36.6306n
  ibs         0.          0.          0.          0.        106.6090a
  ibd       -51.1134p   -51.1067p   -51.1034p   -51.1018p     0.     
  vgs         0.          0.          0.          0.       -899.8934m
  vds       100.0000m   100.0000m   100.0000m   100.0000m   106.6000u
  vbs         0.          0.          0.          0.        106.6000u
  vth       309.9474m   312.3528m   311.4672m   300.3691m  -326.3438m
  vdsat      39.3936m    40.6003m    41.9522m    41.7897m  -448.5252m
  vod      -309.9474m  -312.3528m  -311.4672m  -300.3691m  -573.5496m
  beta        5.2958      2.4631      1.0918    519.9895m   782.1744u
  gam eff   323.8919m   324.9930m   325.8750m   325.8466m   162.3000m
  gm         43.6384u    21.0108u    10.6199u     7.3935u    47.6543n
  gds         2.6936u     1.2924u   616.1518n   428.1438n   343.5890u
  gmb         7.3375u     3.5399u     1.7663u     1.2003u    10.3513n
  cdtot       1.2584p   635.2050f   323.6027f   167.8152f     1.0341f
  cgtot       1.4160p   711.2903f   358.3131f   181.5903f   713.6756a
  cstot       1.3218p   666.8578f   339.4705f   176.2642f     1.3189f
  cbtot       2.1768p     1.1007p   561.9809f   291.9717f   838.0525a
  cgs       464.8772f   233.0913f   117.2892f    59.8706f   341.3299a
  cgd       445.3502f   223.4702f   112.5310f    57.0536f   396.8616a



 subckt    xskew_or0   xskew_or0   xskew_or0   xskew_or1   xskew_or1 
 element   1:mnor0     1:mpor1     1:mnor1     2:mpor0     2:mnor0   
 model     0:nch.25    0:pch.25    0:nch.25    0:pch.15    0:nch.25  
 region        Cutoff      Cutoff      Linear      Linear      Cutoff
  id         39.1772n   467.6515p   696.6538p    36.6306n    39.1772n
  ibs         0.        999.9994f     0.        106.6090a     0.     
  ibd      -999.8951f     0.         -1.4176a     0.       -999.8951f
  vgs       100.0000m   999.8920m   999.8934m  -899.8934m   100.0000m
  vds       999.8934m   999.9986m     1.4175u   106.6000u   999.8934m
  vbs         0.        999.9986m     0.        106.6000u     0.     
  vth       299.9526m  -292.8674m   356.0598m  -326.3438m   299.9526m
  vdsat      43.3402m   -48.1758m   367.1393m  -448.5252m    43.3402m
  vod      -199.9526m     1.2928    643.8336m  -573.5496m  -199.9526m
  beta        1.0488m   306.9773u     1.2067m   782.1744u     1.0488m
  gam eff   331.9594m   162.3000m   342.9665m   162.3000m   331.9594m
  gm          1.0167u    14.3178n   549.6333p    47.6543n     1.0167u
  gds        43.9242n   833.3527p   491.4771u   343.5890u    43.9242n
  gmb       118.6742n     1.9186n   110.2800p    10.3513n   118.6742n
  cdtot     127.1342a   224.6719a   488.5379a     1.0341f   127.1342a
  cgtot     114.7372a   129.3107a   264.0062a   713.6756a   114.7372a
  cstot     163.1057a   155.1723a   378.9146a     1.3189f   163.1057a
  cbtot     206.9681a   270.7685a   299.2758a   838.0525a   206.9681a
  cgs        53.6219a    49.2184a   137.1151a   341.3299a    53.6219a
  cgd        45.4462a    70.0303a   123.8163a   396.8616a    45.4462a



 subckt    xskew_or1   xskew_or1   xskew_or2   xskew_or2   xskew_or2 
 element   2:mpor1     2:mnor1     3:mpor0     3:mnor0     3:mpor1   
 model     0:pch.25    0:nch.25    0:pch.15    0:nch.25    0:pch.25  
 region        Cutoff      Linear      Linear      Cutoff      Cutoff
  id        467.6515p   696.6538p    36.6306n    39.1772n   467.6515p
  ibs       999.9994f     0.        106.6090a     0.        999.9994f
  ibd         0.         -1.4176a     0.       -999.8951f     0.     
  vgs       999.8920m   999.8934m  -899.8934m   100.0000m   999.8920m
  vds       999.9986m     1.4175u   106.6000u   999.8934m   999.9986m
  vbs       999.9986m     0.        106.6000u     0.        999.9986m
  vth      -292.8674m   356.0598m  -326.3438m   299.9526m  -292.8674m
  vdsat     -48.1758m   367.1393m  -448.5252m    43.3402m   -48.1758m
  vod         1.2928    643.8336m  -573.5496m  -199.9526m     1.2928 
  beta      306.9773u     1.2067m   782.1744u     1.0488m   306.9773u
  gam eff   162.3000m   342.9665m   162.3000m   331.9594m   162.3000m
  gm         14.3178n   549.6333p    47.6543n     1.0167u    14.3178n
  gds       833.3527p   491.4771u   343.5890u    43.9242n   833.3527p
  gmb         1.9186n   110.2800p    10.3513n   118.6742n     1.9186n
  cdtot     224.6719a   488.5379a     1.0341f   127.1342a   224.6719a
  cgtot     129.3107a   264.0062a   713.6756a   114.7372a   129.3107a
  cstot     155.1723a   378.9146a     1.3189f   163.1057a   155.1723a
  cbtot     270.7685a   299.2758a   838.0525a   206.9681a   270.7685a
  cgs        49.2184a   137.1151a   341.3299a    53.6219a    49.2184a
  cgd        70.0303a   123.8163a   396.8616a    45.4462a    70.0303a



 subckt    xskew_or2   xskew_or3   xskew_or3   xskew_or3   xskew_or3 
 element   3:mnor1     4:mpor0     4:mnor0     4:mpor1     4:mnor1   
 model     0:nch.25    0:pch.15    0:nch.25    0:pch.25    0:nch.25  
 region        Linear      Linear      Cutoff      Cutoff      Linear
  id        696.6538p    36.6306n    39.1772n   467.6515p   696.6538p
  ibs         0.        106.6090a     0.        999.9994f     0.     
  ibd        -1.4176a     0.       -999.8951f     0.         -1.4176a
  vgs       999.8934m  -899.8934m   100.0000m   999.8920m   999.8934m
  vds         1.4175u   106.6000u   999.8934m   999.9986m     1.4175u
  vbs         0.        106.6000u     0.        999.9986m     0.     
  vth       356.0598m  -326.3438m   299.9526m  -292.8674m   356.0598m
  vdsat     367.1393m  -448.5252m    43.3402m   -48.1758m   367.1393m
  vod       643.8336m  -573.5496m  -199.9526m     1.2928    643.8336m
  beta        1.2067m   782.1744u     1.0488m   306.9773u     1.2067m
  gam eff   342.9665m   162.3000m   331.9594m   162.3000m   342.9665m
  gm        549.6333p    47.6543n     1.0167u    14.3178n   549.6333p
  gds       491.4771u   343.5890u    43.9242n   833.3527p   491.4771u
  gmb       110.2800p    10.3513n   118.6742n     1.9186n   110.2800p
  cdtot     488.5379a     1.0341f   127.1342a   224.6719a   488.5379a
  cgtot     264.0062a   713.6756a   114.7372a   129.3107a   264.0062a
  cstot     378.9146a     1.3189f   163.1057a   155.1723a   378.9146a
  cbtot     299.2758a   838.0525a   206.9681a   270.7685a   299.2758a
  cgs       137.1151a   341.3299a    53.6219a    49.2184a   137.1151a
  cgd       123.8163a   396.8616a    45.4462a    70.0303a   123.8163a



 subckt    xskew_and0  xskew_and0  xskew_and0  xskew_and0  xskew_and1
 element   5:mpand0    5:mnand0    5:mpand1    5:mnand1    6:mpand0  
 model     0:pch.25    0:nch.25    0:pch.15    0:nch.25    0:pch.25  
 region        Linear      Cutoff      Cutoff      Linear      Linear
  id         31.2211n    39.2178n     2.7232n     3.0806n    31.2211n
  ibs       273.3155a     0.        999.9938f     0.        273.3155a
  ibd         0.       -999.7288f     0.         -8.4210a     0.     
  vgs      -899.7267m   100.0000m   999.7183m   999.7267m  -899.7267m
  vds       273.3066u   999.7267m   999.9916m     8.4205u   273.3066u
  vbs       273.3066u     0.        999.9916m     0.        273.3066u
  vth      -337.5723m   309.5922m  -258.1807m   340.4283m  -337.5723m
  vdsat    -463.9971m    42.3384m   -45.2869m   375.9657m  -463.9971m
  vod      -562.1544m  -209.5922m     1.2579    659.2984m  -562.1544m
  beta      263.1716u     1.4462m   912.7211u   865.0545u   263.1716u
  gam eff   162.3000m   342.9665m   162.3000m   331.9594m   162.3000m
  gm         40.0171n     1.0386u    73.7722n     2.3349n    40.0171n
  gds       114.2023u    48.4676n     6.0717n   365.8364u   114.2023u
  gmb         8.5951n   124.8189n    10.3514n   454.7664p     8.5951n
  cdtot     364.1919a   162.2797a   612.2445a   372.3086a   364.1919a
  cgtot     245.7184a   151.0905a   376.6618a   201.2686a   245.7184a
  cstot     455.7661a   209.3441a   408.7985a   290.4958a   455.7661a
  cbtot     317.5556a   263.0694a   702.0835a   234.5993a   317.5556a
  cgs       120.1162a    70.2525a   142.8371a   103.9392a   120.1162a
  cgd       133.2735a    59.6368a   205.0501a    95.0458a   133.2735a



 subckt    xskew_and1  xskew_and1  xskew_and1  xskew_and2  xskew_and2
 element   6:mnand0    6:mpand1    6:mnand1    7:mpand0    7:mnand0  
 model     0:nch.25    0:pch.15    0:nch.25    0:pch.25    0:nch.25  
 region        Cutoff      Cutoff      Linear      Linear      Cutoff
  id         39.2178n     2.7232n     3.0806n    31.2211n    39.2178n
  ibs         0.        999.9938f     0.        273.3155a     0.     
  ibd      -999.7288f     0.         -8.4210a     0.       -999.7288f
  vgs       100.0000m   999.7183m   999.7267m  -899.7267m   100.0000m
  vds       999.7267m   999.9916m     8.4205u   273.3066u   999.7267m
  vbs         0.        999.9916m     0.        273.3066u     0.     
  vth       309.5922m  -258.1807m   340.4283m  -337.5723m   309.5922m
  vdsat      42.3384m   -45.2869m   375.9657m  -463.9971m    42.3384m
  vod      -209.5922m     1.2579    659.2984m  -562.1544m  -209.5922m
  beta        1.4462m   912.7211u   865.0545u   263.1716u     1.4462m
  gam eff   342.9665m   162.3000m   331.9594m   162.3000m   342.9665m
  gm          1.0386u    73.7722n     2.3349n    40.0171n     1.0386u
  gds        48.4676n     6.0717n   365.8364u   114.2023u    48.4676n
  gmb       124.8189n    10.3514n   454.7664p     8.5951n   124.8189n
  cdtot     162.2797a   612.2445a   372.3086a   364.1919a   162.2797a
  cgtot     151.0905a   376.6618a   201.2686a   245.7184a   151.0905a
  cstot     209.3441a   408.7985a   290.4958a   455.7661a   209.3441a
  cbtot     263.0694a   702.0835a   234.5993a   317.5556a   263.0694a
  cgs        70.2525a   142.8371a   103.9392a   120.1162a    70.2525a
  cgd        59.6368a   205.0501a    95.0458a   133.2735a    59.6368a



 subckt    xskew_and2  xskew_and2  xskew_and3  xskew_and3  xskew_and3
 element   7:mpand1    7:mnand1    8:mpand0    8:mnand0    8:mpand1  
 model     0:pch.15    0:nch.25    0:pch.25    0:nch.25    0:pch.15  
 region        Cutoff      Linear      Linear      Cutoff      Cutoff
  id          2.7232n     3.0806n    31.2211n    39.2178n     2.7232n
  ibs       999.9938f     0.        273.3155a     0.        999.9938f
  ibd         0.         -8.4210a     0.       -999.7288f     0.     
  vgs       999.7183m   999.7267m  -899.7267m   100.0000m   999.7183m
  vds       999.9916m     8.4205u   273.3066u   999.7267m   999.9916m
  vbs       999.9916m     0.        273.3066u     0.        999.9916m
  vth      -258.1807m   340.4283m  -337.5723m   309.5922m  -258.1807m
  vdsat     -45.2869m   375.9657m  -463.9971m    42.3384m   -45.2869m
  vod         1.2579    659.2984m  -562.1544m  -209.5922m     1.2579 
  beta      912.7211u   865.0545u   263.1716u     1.4462m   912.7211u
  gam eff   162.3000m   331.9594m   162.3000m   342.9665m   162.3000m
  gm         73.7722n     2.3349n    40.0171n     1.0386u    73.7722n
  gds         6.0717n   365.8364u   114.2023u    48.4676n     6.0717n
  gmb        10.3514n   454.7664p     8.5951n   124.8189n    10.3514n
  cdtot     612.2445a   372.3086a   364.1919a   162.2797a   612.2445a
  cgtot     376.6618a   201.2686a   245.7184a   151.0905a   376.6618a
  cstot     408.7985a   290.4958a   455.7661a   209.3441a   408.7985a
  cbtot     702.0835a   234.5993a   317.5556a   263.0694a   702.0835a
  cgs       142.8371a   103.9392a   120.1162a    70.2525a   142.8371a
  cgd       205.0501a    95.0458a   133.2735a    59.6368a   205.0501a



 subckt    xskew_and3  xnor0       xnor0       xnor0       xnor0     
 element   8:mnand1    9:mp1       9:mp2       9:mn1       9:mn2     
 model     0:nch.25    0:pch.20    0:pch.20    0:nch.25    0:nch.25  
 region        Linear      Cutoff      Cutoff      Linear      Cutoff
  id          3.0806n   688.8572p   719.2501p     1.0086n    32.8217f
  ibs         0.        835.3463f   999.9984f     0.          0.     
  ibd        -8.4210a     0.        835.3463f    -2.7571a    -2.7571a
  vgs       999.7267m   835.0718m    -1.3395u   999.7267m     1.4175u
  vds         8.4205u   835.3451m   164.6522m     2.7570u     2.7570u
  vbs         0.        835.3451m   999.9972m     0.          0.     
  vth       340.4283m  -293.3414m  -439.2499m   340.4286m   340.4286m
  vdsat     375.9657m   -47.7170m   -48.4997m   375.9656m    42.6965m
  vod       659.2984m     1.1284    439.2486m   659.2981m  -340.4272m
  beta      865.0545u   455.3790u   442.1755u   865.0543u     1.0387m
  gam eff   331.9594m   162.3000m   162.3000m   331.9594m   331.9594m
  gm          2.3349n    20.5527n    21.2284n   764.4713p     1.0692p
  gds       365.8364u     1.4025n     2.1713n   365.8425u    11.9046n
  gmb       454.7664p     2.8763n     2.6901n   148.8957p   153.1113f
  cdtot     372.3086a   321.1728a   261.0142a   372.3116a   160.5112a
  cgtot     201.2686a   192.8536a   218.4449a   201.2687a   118.2102a
  cstot     290.4958a   227.2201a   248.0173a   290.4966a   160.3123a
  cbtot     234.5993a   385.3730a   306.5962a   234.5997a   235.7298a
  cgs       103.9392a    74.5626a   102.0360a   103.9387a    50.6877a
  cgd        95.0458a   103.4520a   108.4395a    95.0464a    50.6526a



 subckt    xnor1       xnor1       xnor1       xnor1       xnor2     
 element  10:mp1      10:mp2      10:mn1      10:mn2      11:mp1     
 model     0:pch.20    0:pch.20    0:nch.25    0:nch.25    0:pch.20  
 region        Cutoff      Cutoff      Linear      Cutoff      Cutoff
  id        688.8572p   719.2501p     1.0086n    32.8217f   688.8572p
  ibs       835.3463f   999.9984f     0.          0.        835.3463f
  ibd         0.        835.3463f    -2.7571a    -2.7571a     0.     
  vgs       835.0718m    -1.3395u   999.7267m     1.4175u   835.0718m
  vds       835.3451m   164.6522m     2.7570u     2.7570u   835.3451m
  vbs       835.3451m   999.9972m     0.          0.        835.3451m
  vth      -293.3414m  -439.2499m   340.4286m   340.4286m  -293.3414m
  vdsat     -47.7170m   -48.4997m   375.9656m    42.6965m   -47.7170m
  vod         1.1284    439.2486m   659.2981m  -340.4272m     1.1284 
  beta      455.3790u   442.1755u   865.0543u     1.0387m   455.3790u
  gam eff   162.3000m   162.3000m   331.9594m   331.9594m   162.3000m
  gm         20.5527n    21.2284n   764.4713p     1.0692p    20.5527n
  gds         1.4025n     2.1713n   365.8425u    11.9046n     1.4025n
  gmb         2.8763n     2.6901n   148.8957p   153.1113f     2.8763n
  cdtot     321.1728a   261.0142a   372.3116a   160.5112a   321.1728a
  cgtot     192.8536a   218.4449a   201.2687a   118.2102a   192.8536a
  cstot     227.2201a   248.0173a   290.4966a   160.3123a   227.2201a
  cbtot     385.3730a   306.5962a   234.5997a   235.7298a   385.3730a
  cgs        74.5626a   102.0360a   103.9387a    50.6877a    74.5626a
  cgd       103.4520a   108.4395a    95.0464a    50.6526a   103.4520a



 subckt    xnor2       xnor2       xnor2       xnor3       xnor3     
 element  11:mp2      11:mn1      11:mn2      12:mp1      12:mp2     
 model     0:pch.20    0:nch.25    0:nch.25    0:pch.20    0:pch.20  
 region        Cutoff      Linear      Cutoff      Cutoff      Cutoff
  id        719.2501p     1.0086n    32.8217f   688.8572p   719.2501p
  ibs       999.9984f     0.          0.        835.3463f   999.9984f
  ibd       835.3463f    -2.7571a    -2.7571a     0.        835.3463f
  vgs        -1.3395u   999.7267m     1.4175u   835.0718m    -1.3395u
  vds       164.6522m     2.7570u     2.7570u   835.3451m   164.6522m
  vbs       999.9972m     0.          0.        835.3451m   999.9972m
  vth      -439.2499m   340.4286m   340.4286m  -293.3414m  -439.2499m
  vdsat     -48.4997m   375.9656m    42.6965m   -47.7170m   -48.4997m
  vod       439.2486m   659.2981m  -340.4272m     1.1284    439.2486m
  beta      442.1755u   865.0543u     1.0387m   455.3790u   442.1755u
  gam eff   162.3000m   331.9594m   331.9594m   162.3000m   162.3000m
  gm         21.2284n   764.4713p     1.0692p    20.5527n    21.2284n
  gds         2.1713n   365.8425u    11.9046n     1.4025n     2.1713n
  gmb         2.6901n   148.8957p   153.1113f     2.8763n     2.6901n
  cdtot     261.0142a   372.3116a   160.5112a   321.1728a   261.0142a
  cgtot     218.4449a   201.2687a   118.2102a   192.8536a   218.4449a
  cstot     248.0173a   290.4966a   160.3123a   227.2201a   248.0173a
  cbtot     306.5962a   234.5997a   235.7298a   385.3730a   306.5962a
  cgs       102.0360a   103.9387a    50.6877a    74.5626a   102.0360a
  cgd       108.4395a    95.0464a    50.6526a   103.4520a   108.4395a



 subckt    xnor3       xnor3       xlat_out0.  xlat_out0.  xlat_out0.
 element  12:mn1      12:mn2      25:mpa      25:mna      25:mpb     
 model     0:nch.25    0:nch.25    0:pch.20    0:nch.25    0:pch.20  
 region        Linear      Cutoff      Cutoff      Cutoff      Cutoff
  id          1.0086n    32.8217f    16.4199p    66.7694a    -8.2280p
  ibs         0.          0.        513.5205f  -486.4824f   513.5205f
  ibd        -2.7571a    -2.7571a   471.8092f  -528.1937f   513.5215f
  vgs       999.7267m     1.4175u    28.7921m  -386.5587m  -386.5587m
  vds         2.7570u     2.7570u    41.7113m    41.7113m    -1.0065u
  vbs         0.          0.        513.5193m  -486.4807m   513.5193m
  vth       340.4286m   340.4286m  -401.1856m   394.4055m  -409.2597m
  vdsat     375.9656m    42.6965m   -48.2342m    43.4749m   -70.2069m
  vod       659.2981m  -340.4272m   429.9777m  -780.9642m    22.7010m
  beta      865.0543u     1.0387m   443.6920u     1.0397m   441.8311u
  gam eff   331.9594m   331.9594m   162.3000m   331.9594m   162.3000m
  gm        764.4713p     1.0692p   507.8901p     2.3031f   130.7463p
  gds       365.8425u    11.9046n   229.6202p   753.4932a     8.1746u
  gmb       148.8957p   153.1113f    69.2692p   266.7319a    18.2384p
  cdtot     372.3116a   160.5112a   275.5767a   137.6480a   376.6472a
  cgtot     201.2687a   118.2102a   214.2247a   110.3545a   270.2134a
  cstot     290.4966a   160.3123a   270.5458a   138.9078a   340.8491a
  cbtot     234.5997a   235.7298a   352.2132a   198.0800a   348.4372a
  cgs       103.9387a    50.6877a   100.7783a    47.3298a   139.8255a
  cgd        95.0464a    50.6526a   103.2909a    47.0895a   127.9711a



 subckt    xlat_out0.  xlat_out0.  xlat_out0.  xlat_out0.  xlat_out0.
 element  25:mnb      25:mps      25:mns      26:mp0      26:mn0     
 model     0:nch.25    0:pch.20    0:nch.25    0:pch.20    0:nch.25  
 region        Cutoff    Saturati      Linear    Saturati    Saturati
  id         -4.2862f     9.9613u     9.9613u    14.5751u   -14.5751u
  ibs      -486.4824f   900.0792f     0.        497.9620f  -502.0414f
  ibd      -486.4814f     0.        -99.9236f     0.          0.     
  vgs        28.7921m   415.3508m   515.2728m   -15.5590m   -15.5590m
  vds        -1.0065u   900.0780m    99.9220m   497.9603m  -502.0397m
  vbs      -486.4807m   900.0780m     0.        497.9603m  -502.0397m
  vth       396.9932m  -289.9162m   335.3046m  -298.6677m   317.4274m
  vdsat      43.4820m  -204.6262m   155.7364m  -210.1867m   150.0227m
  vod      -368.2011m   705.2670m   179.9682m   283.1087m  -332.9864m
  beta        1.0387m   446.4441u     1.0127m   657.5452u     1.0231m
  gam eff   331.9594m   162.3000m   331.9594m   162.3000m   331.9594m
  gm        143.8367f    77.4048u    59.5529u   109.1222u   111.0195u
  gds         4.2584n     6.5662u    61.0709u    12.0450u     9.1155u
  gmb        15.4133f    11.0092u     8.0692u    16.5590u    13.7773u
  cdtot     142.5287a   429.3713a   176.5285a   630.5540a   230.1455a
  cgtot     114.7377a   307.8492a   185.6665a   488.3548a   181.8463a
  cstot     142.6300a   232.9281a   234.9664a   395.3144a   141.7329a
  cbtot     196.3061a   376.0941a   227.6848a   566.7685a   214.0603a
  cgs        50.8101a    77.1859a   127.7795a   141.9490a    47.8048a
  cgd        50.8114a   234.4149a    52.9353a   354.2664a   128.0831a



 subckt    xlat_out0.  xlat_out0.  xlat_and0.  xlat_and0.  xlat_and0.
 element  26:mp1      26:mn1      27:mpa      27:mna      27:mpb     
 model     0:pch.15    0:nch.20    0:pch.20    0:nch.25    0:pch.20  
 region      Saturati    Saturati      Linear      Cutoff      Linear
  id         28.1668u   -28.1668u    10.1328n   1.408e-27    -9.3963n
  ibs       471.8112f  -528.1951f   218.2536a  -999.7834f   218.2536a
  ibd         0.          0.         22.7683a  -999.9789f   273.3190a
  vgs       -26.1523m   -26.1523m  -484.5090m  -899.8576m  -899.8576m
  vds       471.8080m  -528.1920m   195.4764u   195.4764u   -55.0629u
  vbs       471.8080m  -528.1920m   218.2437u  -999.7818m   218.2437u
  vth      -282.2543m   342.8409m  -337.5359m   444.0479m  -337.5728m
  vdsat    -202.8569m   142.9585m  -167.9052m    43.7957m  -460.2378m
  vod       256.1020m  -368.9932m  -146.9730m    -1.3439   -562.2847m
  beta        1.3282m     2.2449m   439.6112u     1.0424m   394.0734u
  gam eff   162.3000m   348.6288m   162.3000m   331.9594m   162.3000m
  gm        222.8557u   221.6188u    63.8036n   4.908e-26    12.2821n
  gds        23.9133u    18.0471u    51.8073u   7.190e-24   170.6371u
  gmb        33.2695u    28.6054u    10.5631n   4.965e-27     2.6254n
  cdtot       1.2203f   432.2558a   481.6032a   127.1325a   664.7925a
  cgtot     965.9177a   350.6884a   338.4534a   106.9754a   362.6828a
  cstot     766.8419a   259.3416a   571.2256a   127.1359a   529.0271a
  cbtot       1.0828f   387.0291a   448.0424a   179.1788a   447.6420a
  cgs       286.2369a    91.2744a   156.9535a    45.5198a   198.5580a
  cgd       695.1636a   247.0788a   188.0563a    45.5149a   176.0483a



 subckt    xlat_and0.  xlat_and0.  xlat_and0.  xlat_and0.  xlat_and0.
 element  27:mnb      27:mps      27:mns      28:mp0      28:mn0     
 model     0:nch.25    0:pch.20    0:nch.25    0:pch.20    0:nch.25  
 region        Cutoff    Saturati      Linear      Cutoff      Linear
  id       -7.685e-22     9.9613u     9.9615u     1.8378n    -2.8247n
  ibs      -999.7834f   900.0770f     0.        999.9940f    -7.7212a
  ibd      -999.7284f     0.        -99.9258f     0.          0.     
  vgs      -484.5090m   415.3486m   515.2728m   999.7740m   999.7740m
  vds       -55.0629u   900.0758m    99.9242m   999.9923m    -7.7207u
  vbs      -999.7818m   900.0758m     0.        999.9923m    -7.7207u
  vth       444.0536m  -289.9163m   335.3045m  -266.9969m   340.4283m
  vdsat      43.7956m  -204.6261m   155.7364m   -46.0808m   375.9897m
  vod      -928.5625m   705.2649m   179.9683m     1.2668    659.3457m
  beta        1.0424m   446.4441u     1.0127m   684.3010u   865.0347u
  gam eff   331.9594m   162.3000m   331.9594m   162.3000m   331.9594m
  gm        2.678e-20    77.4047u    59.5540u    51.3357n     2.1406n
  gds        13.9495a     6.5662u    61.0695u     3.9685n   365.8524u
  gmb       2.535e-21    11.0092u     8.0693u     7.1417n   416.9511p
  cdtot     128.4328a   429.3713a   176.5272a   466.6890a   290.4967a
  cgtot     106.7608a   307.8493a   185.6664a   283.7819a   201.2690a
  cstot     128.4317a   232.9282a   234.9662a   313.6883a   372.3107a
  cbtot     176.3763a   376.0942a   227.6846a   540.3659a   234.5993a
  cgs        46.8112a    77.1860a   127.7796a   107.7448a    95.0463a
  cgd        46.8152a   234.4148a    52.9350a   154.2263a   103.9392a



 subckt    xlat_and0.  xlat_and0.  xlat_or0.x  xlat_or0.x  xlat_or0.x
 element  28:mp1      28:mn1      29:mpa      29:mna      29:mpb     
 model     0:pch.15    0:nch.20    0:pch.20    0:nch.25    0:pch.20  
 region        Linear      Cutoff      Linear      Cutoff      Linear
  id         13.5727n    -3.0542n     3.9205n   5.427e-28    -3.1837n
  ibs        22.7701a  -999.9803f    87.9521a  -999.9137f    87.9521a
  ibd         0.          0.         12.3473a  -999.9893f   106.6049a
  vgs      -999.9695m  -999.9695m  -484.6392m  -899.9879m  -899.9879m
  vds        22.7673u  -999.9772m    75.6014u    75.6014u   -18.6519u
  vbs        22.7673u  -999.9772m    87.9481u  -999.9121m    87.9481u
  vth      -306.2377m   321.7583m  -337.5407m   444.0675m  -337.5551m
  vdsat    -526.5317m    42.3969m  -167.9090m    43.7957m  -460.3348m
  vod      -693.7318m    -1.3217   -147.0986m    -1.3441   -562.4328m
  beta        1.1448m     2.2970m   439.6095u     1.0424m   394.0570u
  gam eff   162.3000m   348.6288m   162.3000m   331.9594m   162.3000m
  gm         13.0218n    90.3933n    24.6791n   1.891e-26     4.1596n
  gds       596.1386u     4.3832n    51.8468u   7.172e-24   170.6851u
  gmb         3.1980n    11.2705n     4.0860n   1.913e-27   889.3115p
  cdtot       1.5390f   296.9502a   481.7581a   127.1323a   664.8733a
  cgtot       1.0664f   220.8595a   338.4692a   106.9751a   362.6852a
  cstot       1.9891f   232.1766a   571.7791a   127.1336a   529.0647a
  cbtot       1.2283f   376.8400a   448.0674a   179.1767a   447.6849a
  cgs       522.3496a    87.7715a   157.0704a    45.5196a   198.5490a
  cgd       582.1848a    98.8282a   187.9579a    45.5149a   176.0607a



 subckt    xlat_or0.x  xlat_or0.x  xlat_or0.x  xlat_or0.x  xlat_or0.x
 element  29:mnb      29:mps      29:mns      30:mp0      30:mn0     
 model     0:nch.25    0:pch.20    0:nch.25    0:pch.20    0:nch.25  
 region        Cutoff    Saturati      Linear      Cutoff      Linear
  id       -2.588e-22     9.9613u     9.9615u     1.8311n    -2.8182n
  ibs      -999.9137f   900.0770f     0.        999.9940f    -7.7027a
  ibd      -999.8951f     0.        -99.9258f     0.          0.     
  vgs      -484.6392m   415.3486m   515.2728m   999.9043m   999.9043m
  vds       -18.6519u   900.0758m    99.9242m   999.9923m    -7.7022u
  vbs      -999.9121m   900.0758m     0.        999.9923m    -7.7022u
  vth       444.0701m  -289.9163m   335.3045m  -266.9969m   340.4283m
  vdsat      43.7957m  -204.6261m   155.7364m   -46.0806m   376.0465m
  vod      -928.7094m   705.2649m   179.9683m     1.2669    659.4760m
  beta        1.0424m   446.4441u     1.0127m   684.3007u   864.9878u
  gam eff   331.9594m   162.3000m   331.9594m   162.3000m   331.9594m
  gm        9.018e-21    77.4047u    59.5540u    51.1518n     2.1350n
  gds        13.8717a     6.5662u    61.0695u     3.9543n   365.8885u
  gmb       8.537e-22    11.0092u     8.0693u     7.1164n   415.9006p
  cdtot     128.4295a   429.3713a   176.5272a   466.6771a   290.4986a
  cgtot     106.7594a   307.8493a   185.6664a   283.7720a   201.2697a
  cstot     128.4292a   232.9282a   234.9662a   313.6863a   372.3149a
  cbtot     176.3719a   376.0942a   227.6846a   540.3691a   234.5993a
  cgs        46.8106a    77.1860a   127.7796a   107.7430a    95.0472a
  cgd        46.8144a   234.4148a    52.9350a   154.2148a   103.9392a



 subckt    xlat_or0.x  xlat_or0.x  xlat_out1.  xlat_out1.  xlat_out1.
 element  30:mp1      30:mn1      31:mpa      31:mna      31:mpb     
 model     0:pch.15    0:nch.20    0:pch.20    0:nch.25    0:pch.20  
 region        Linear      Cutoff      Cutoff      Cutoff      Cutoff
  id          7.3606n    -3.0543n    16.4199p    66.7694a    -8.2280p
  ibs        12.3482a  -999.9907f   513.5205f  -486.4824f   513.5205f
  ibd         0.          0.        471.8092f  -528.1937f   513.5215f
  vgs      -999.9800m  -999.9800m    28.7921m  -386.5587m  -386.5587m
  vds        12.3467u  -999.9877m    41.7113m    41.7113m    -1.0065u
  vbs        12.3467u  -999.9877m   513.5193m  -486.4807m   513.5193m
  vth      -306.2382m   321.7578m  -401.1856m   394.4055m  -409.2597m
  vdsat    -526.5313m    42.3969m   -48.2342m    43.4749m   -70.2069m
  vod      -693.7417m    -1.3217    429.9777m  -780.9642m    22.7010m
  beta        1.1448m     2.2970m   443.6920u     1.0397m   441.8311u
  gam eff   162.3000m   348.6288m   162.3000m   331.9594m   162.3000m
  gm          7.0617n    90.3946n   507.8901p     2.3031f   130.7463p
  gds       596.1497u     4.3833n   229.6202p   753.4932a     8.1746u
  gmb         1.7343n    11.2706n    69.2692p   266.7319a    18.2384p
  cdtot       1.5390f   296.9502a   275.5767a   137.6480a   376.6472a
  cgtot       1.0664f   220.8595a   214.2247a   110.3545a   270.2134a
  cstot       1.9892f   232.1763a   270.5458a   138.9078a   340.8491a
  cbtot       1.2283f   376.8397a   352.2132a   198.0800a   348.4372a
  cgs       522.3562a    87.7715a   100.7783a    47.3298a   139.8255a
  cgd       582.1788a    98.8282a   103.2909a    47.0895a   127.9711a



 subckt    xlat_out1.  xlat_out1.  xlat_out1.  xlat_out1.  xlat_out1.
 element  31:mnb      31:mps      31:mns      32:mp0      32:mn0     
 model     0:nch.25    0:pch.20    0:nch.25    0:pch.20    0:nch.25  
 region        Cutoff    Saturati      Linear    Saturati    Saturati
  id         -4.2862f     9.9613u     9.9613u    14.5751u   -14.5751u
  ibs      -486.4824f   900.0792f     0.        497.9620f  -502.0414f
  ibd      -486.4814f     0.        -99.9236f     0.          0.     
  vgs        28.7921m   415.3508m   515.2728m   -15.5590m   -15.5590m
  vds        -1.0065u   900.0780m    99.9220m   497.9603m  -502.0397m
  vbs      -486.4807m   900.0780m     0.        497.9603m  -502.0397m
  vth       396.9932m  -289.9162m   335.3046m  -298.6677m   317.4274m
  vdsat      43.4820m  -204.6262m   155.7364m  -210.1867m   150.0227m
  vod      -368.2011m   705.2670m   179.9682m   283.1087m  -332.9864m
  beta        1.0387m   446.4441u     1.0127m   657.5452u     1.0231m
  gam eff   331.9594m   162.3000m   331.9594m   162.3000m   331.9594m
  gm        143.8367f    77.4048u    59.5529u   109.1222u   111.0195u
  gds         4.2584n     6.5662u    61.0709u    12.0450u     9.1155u
  gmb        15.4133f    11.0092u     8.0692u    16.5590u    13.7773u
  cdtot     142.5287a   429.3713a   176.5285a   630.5540a   230.1455a
  cgtot     114.7377a   307.8492a   185.6665a   488.3548a   181.8463a
  cstot     142.6300a   232.9281a   234.9664a   395.3144a   141.7329a
  cbtot     196.3061a   376.0941a   227.6848a   566.7685a   214.0603a
  cgs        50.8101a    77.1859a   127.7795a   141.9490a    47.8048a
  cgd        50.8114a   234.4149a    52.9353a   354.2664a   128.0831a



 subckt    xlat_out1.  xlat_out1.  xlat_and1.  xlat_and1.  xlat_and1.
 element  32:mp1      32:mn1      33:mpa      33:mna      33:mpb     
 model     0:pch.15    0:nch.20    0:pch.20    0:nch.25    0:pch.20  
 region      Saturati    Saturati      Linear      Cutoff      Linear
  id         28.1668u   -28.1668u    10.1328n   1.408e-27    -9.3963n
  ibs       471.8112f  -528.1951f   218.2536a  -999.7834f   218.2536a
  ibd         0.          0.         22.7683a  -999.9789f   273.3190a
  vgs       -26.1523m   -26.1523m  -484.5090m  -899.8576m  -899.8576m
  vds       471.8080m  -528.1920m   195.4764u   195.4764u   -55.0629u
  vbs       471.8080m  -528.1920m   218.2437u  -999.7818m   218.2437u
  vth      -282.2543m   342.8409m  -337.5359m   444.0479m  -337.5728m
  vdsat    -202.8569m   142.9585m  -167.9052m    43.7957m  -460.2378m
  vod       256.1020m  -368.9932m  -146.9730m    -1.3439   -562.2847m
  beta        1.3282m     2.2449m   439.6112u     1.0424m   394.0734u
  gam eff   162.3000m   348.6288m   162.3000m   331.9594m   162.3000m
  gm        222.8557u   221.6188u    63.8036n   4.908e-26    12.2821n
  gds        23.9133u    18.0471u    51.8073u   7.190e-24   170.6371u
  gmb        33.2695u    28.6054u    10.5631n   4.965e-27     2.6254n
  cdtot       1.2203f   432.2558a   481.6032a   127.1325a   664.7925a
  cgtot     965.9177a   350.6884a   338.4534a   106.9754a   362.6828a
  cstot     766.8419a   259.3416a   571.2256a   127.1359a   529.0271a
  cbtot       1.0828f   387.0291a   448.0424a   179.1788a   447.6420a
  cgs       286.2369a    91.2744a   156.9535a    45.5198a   198.5580a
  cgd       695.1636a   247.0788a   188.0563a    45.5149a   176.0483a



 subckt    xlat_and1.  xlat_and1.  xlat_and1.  xlat_and1.  xlat_and1.
 element  33:mnb      33:mps      33:mns      34:mp0      34:mn0     
 model     0:nch.25    0:pch.20    0:nch.25    0:pch.20    0:nch.25  
 region        Cutoff    Saturati      Linear      Cutoff      Linear
  id       -7.685e-22     9.9613u     9.9615u     1.8378n    -2.8247n
  ibs      -999.7834f   900.0770f     0.        999.9940f    -7.7212a
  ibd      -999.7284f     0.        -99.9258f     0.          0.     
  vgs      -484.5090m   415.3486m   515.2728m   999.7740m   999.7740m
  vds       -55.0629u   900.0758m    99.9242m   999.9923m    -7.7207u
  vbs      -999.7818m   900.0758m     0.        999.9923m    -7.7207u
  vth       444.0536m  -289.9163m   335.3045m  -266.9969m   340.4283m
  vdsat      43.7956m  -204.6261m   155.7364m   -46.0808m   375.9897m
  vod      -928.5625m   705.2649m   179.9683m     1.2668    659.3457m
  beta        1.0424m   446.4441u     1.0127m   684.3010u   865.0347u
  gam eff   331.9594m   162.3000m   331.9594m   162.3000m   331.9594m
  gm        2.678e-20    77.4047u    59.5540u    51.3357n     2.1406n
  gds        13.9495a     6.5662u    61.0695u     3.9685n   365.8524u
  gmb       2.535e-21    11.0092u     8.0693u     7.1417n   416.9511p
  cdtot     128.4328a   429.3713a   176.5272a   466.6890a   290.4967a
  cgtot     106.7608a   307.8493a   185.6664a   283.7819a   201.2690a
  cstot     128.4317a   232.9282a   234.9662a   313.6883a   372.3107a
  cbtot     176.3763a   376.0942a   227.6846a   540.3659a   234.5993a
  cgs        46.8112a    77.1860a   127.7796a   107.7448a    95.0463a
  cgd        46.8152a   234.4148a    52.9350a   154.2263a   103.9392a



 subckt    xlat_and1.  xlat_and1.  xlat_or1.x  xlat_or1.x  xlat_or1.x
 element  34:mp1      34:mn1      35:mpa      35:mna      35:mpb     
 model     0:pch.15    0:nch.20    0:pch.20    0:nch.25    0:pch.20  
 region        Linear      Cutoff      Linear      Cutoff      Linear
  id         13.5727n    -3.0542n     3.9205n   5.427e-28    -3.1837n
  ibs        22.7701a  -999.9803f    87.9521a  -999.9137f    87.9521a
  ibd         0.          0.         12.3473a  -999.9893f   106.6049a
  vgs      -999.9695m  -999.9695m  -484.6392m  -899.9879m  -899.9879m
  vds        22.7673u  -999.9772m    75.6014u    75.6014u   -18.6519u
  vbs        22.7673u  -999.9772m    87.9481u  -999.9121m    87.9481u
  vth      -306.2377m   321.7583m  -337.5407m   444.0675m  -337.5551m
  vdsat    -526.5317m    42.3969m  -167.9090m    43.7957m  -460.3348m
  vod      -693.7318m    -1.3217   -147.0986m    -1.3441   -562.4328m
  beta        1.1448m     2.2970m   439.6095u     1.0424m   394.0570u
  gam eff   162.3000m   348.6288m   162.3000m   331.9594m   162.3000m
  gm         13.0218n    90.3933n    24.6791n   1.891e-26     4.1596n
  gds       596.1386u     4.3832n    51.8468u   7.172e-24   170.6851u
  gmb         3.1980n    11.2705n     4.0860n   1.913e-27   889.3115p
  cdtot       1.5390f   296.9502a   481.7581a   127.1323a   664.8733a
  cgtot       1.0664f   220.8595a   338.4692a   106.9751a   362.6852a
  cstot       1.9891f   232.1766a   571.7791a   127.1336a   529.0647a
  cbtot       1.2283f   376.8400a   448.0674a   179.1767a   447.6849a
  cgs       522.3496a    87.7715a   157.0704a    45.5196a   198.5490a
  cgd       582.1848a    98.8282a   187.9579a    45.5149a   176.0607a



 subckt    xlat_or1.x  xlat_or1.x  xlat_or1.x  xlat_or1.x  xlat_or1.x
 element  35:mnb      35:mps      35:mns      36:mp0      36:mn0     
 model     0:nch.25    0:pch.20    0:nch.25    0:pch.20    0:nch.25  
 region        Cutoff    Saturati      Linear      Cutoff      Linear
  id       -2.588e-22     9.9613u     9.9615u     1.8311n    -2.8182n
  ibs      -999.9137f   900.0770f     0.        999.9940f    -7.7027a
  ibd      -999.8951f     0.        -99.9258f     0.          0.     
  vgs      -484.6392m   415.3486m   515.2728m   999.9043m   999.9043m
  vds       -18.6519u   900.0758m    99.9242m   999.9923m    -7.7022u
  vbs      -999.9121m   900.0758m     0.        999.9923m    -7.7022u
  vth       444.0701m  -289.9163m   335.3045m  -266.9969m   340.4283m
  vdsat      43.7957m  -204.6261m   155.7364m   -46.0806m   376.0465m
  vod      -928.7094m   705.2649m   179.9683m     1.2669    659.4760m
  beta        1.0424m   446.4441u     1.0127m   684.3007u   864.9878u
  gam eff   331.9594m   162.3000m   331.9594m   162.3000m   331.9594m
  gm        9.018e-21    77.4047u    59.5540u    51.1518n     2.1350n
  gds        13.8717a     6.5662u    61.0695u     3.9543n   365.8885u
  gmb       8.537e-22    11.0092u     8.0693u     7.1164n   415.9006p
  cdtot     128.4295a   429.3713a   176.5272a   466.6771a   290.4986a
  cgtot     106.7594a   307.8493a   185.6664a   283.7720a   201.2697a
  cstot     128.4292a   232.9282a   234.9662a   313.6863a   372.3149a
  cbtot     176.3719a   376.0942a   227.6846a   540.3691a   234.5993a
  cgs        46.8106a    77.1860a   127.7796a   107.7430a    95.0472a
  cgd        46.8144a   234.4148a    52.9350a   154.2148a   103.9392a



 subckt    xlat_or1.x  xlat_or1.x  xlat_out2.  xlat_out2.  xlat_out2.
 element  36:mp1      36:mn1      37:mpa      37:mna      37:mpb     
 model     0:pch.15    0:nch.20    0:pch.20    0:nch.25    0:pch.20  
 region        Linear      Cutoff      Cutoff      Cutoff      Cutoff
  id          7.3606n    -3.0543n    16.4199p    66.7694a    -8.2280p
  ibs        12.3482a  -999.9907f   513.5205f  -486.4824f   513.5205f
  ibd         0.          0.        471.8092f  -528.1937f   513.5215f
  vgs      -999.9800m  -999.9800m    28.7921m  -386.5587m  -386.5587m
  vds        12.3467u  -999.9877m    41.7113m    41.7113m    -1.0065u
  vbs        12.3467u  -999.9877m   513.5193m  -486.4807m   513.5193m
  vth      -306.2382m   321.7578m  -401.1856m   394.4055m  -409.2597m
  vdsat    -526.5313m    42.3969m   -48.2342m    43.4749m   -70.2069m
  vod      -693.7417m    -1.3217    429.9777m  -780.9642m    22.7010m
  beta        1.1448m     2.2970m   443.6920u     1.0397m   441.8311u
  gam eff   162.3000m   348.6288m   162.3000m   331.9594m   162.3000m
  gm          7.0617n    90.3946n   507.8901p     2.3031f   130.7463p
  gds       596.1497u     4.3833n   229.6202p   753.4932a     8.1746u
  gmb         1.7343n    11.2706n    69.2692p   266.7319a    18.2384p
  cdtot       1.5390f   296.9502a   275.5767a   137.6480a   376.6472a
  cgtot       1.0664f   220.8595a   214.2247a   110.3545a   270.2134a
  cstot       1.9892f   232.1763a   270.5458a   138.9078a   340.8491a
  cbtot       1.2283f   376.8397a   352.2132a   198.0800a   348.4372a
  cgs       522.3562a    87.7715a   100.7783a    47.3298a   139.8255a
  cgd       582.1788a    98.8282a   103.2909a    47.0895a   127.9711a



 subckt    xlat_out2.  xlat_out2.  xlat_out2.  xlat_out2.  xlat_out2.
 element  37:mnb      37:mps      37:mns      38:mp0      38:mn0     
 model     0:nch.25    0:pch.20    0:nch.25    0:pch.20    0:nch.25  
 region        Cutoff    Saturati      Linear    Saturati    Saturati
  id         -4.2862f     9.9613u     9.9613u    14.5751u   -14.5751u
  ibs      -486.4824f   900.0792f     0.        497.9620f  -502.0414f
  ibd      -486.4814f     0.        -99.9236f     0.          0.     
  vgs        28.7921m   415.3508m   515.2728m   -15.5590m   -15.5590m
  vds        -1.0065u   900.0780m    99.9220m   497.9603m  -502.0397m
  vbs      -486.4807m   900.0780m     0.        497.9603m  -502.0397m
  vth       396.9932m  -289.9162m   335.3046m  -298.6677m   317.4274m
  vdsat      43.4820m  -204.6262m   155.7364m  -210.1867m   150.0227m
  vod      -368.2011m   705.2670m   179.9682m   283.1087m  -332.9864m
  beta        1.0387m   446.4441u     1.0127m   657.5452u     1.0231m
  gam eff   331.9594m   162.3000m   331.9594m   162.3000m   331.9594m
  gm        143.8367f    77.4048u    59.5529u   109.1222u   111.0195u
  gds         4.2584n     6.5662u    61.0709u    12.0450u     9.1155u
  gmb        15.4133f    11.0092u     8.0692u    16.5590u    13.7773u
  cdtot     142.5287a   429.3713a   176.5285a   630.5540a   230.1455a
  cgtot     114.7377a   307.8492a   185.6665a   488.3548a   181.8463a
  cstot     142.6300a   232.9281a   234.9664a   395.3144a   141.7329a
  cbtot     196.3061a   376.0941a   227.6848a   566.7685a   214.0603a
  cgs        50.8101a    77.1859a   127.7795a   141.9490a    47.8048a
  cgd        50.8114a   234.4149a    52.9353a   354.2664a   128.0831a



 subckt    xlat_out2.  xlat_out2.  xlat_and2.  xlat_and2.  xlat_and2.
 element  38:mp1      38:mn1      39:mpa      39:mna      39:mpb     
 model     0:pch.15    0:nch.20    0:pch.20    0:nch.25    0:pch.20  
 region      Saturati    Saturati      Linear      Cutoff      Linear
  id         28.1668u   -28.1668u    10.1328n   1.408e-27    -9.3963n
  ibs       471.8112f  -528.1951f   218.2536a  -999.7834f   218.2536a
  ibd         0.          0.         22.7683a  -999.9789f   273.3190a
  vgs       -26.1523m   -26.1523m  -484.5090m  -899.8576m  -899.8576m
  vds       471.8080m  -528.1920m   195.4764u   195.4764u   -55.0629u
  vbs       471.8080m  -528.1920m   218.2437u  -999.7818m   218.2437u
  vth      -282.2543m   342.8409m  -337.5359m   444.0479m  -337.5728m
  vdsat    -202.8569m   142.9585m  -167.9052m    43.7957m  -460.2378m
  vod       256.1020m  -368.9932m  -146.9730m    -1.3439   -562.2847m
  beta        1.3282m     2.2449m   439.6112u     1.0424m   394.0734u
  gam eff   162.3000m   348.6288m   162.3000m   331.9594m   162.3000m
  gm        222.8557u   221.6188u    63.8036n   4.908e-26    12.2821n
  gds        23.9133u    18.0471u    51.8073u   7.190e-24   170.6371u
  gmb        33.2695u    28.6054u    10.5631n   4.965e-27     2.6254n
  cdtot       1.2203f   432.2558a   481.6032a   127.1325a   664.7925a
  cgtot     965.9177a   350.6884a   338.4534a   106.9754a   362.6828a
  cstot     766.8419a   259.3416a   571.2256a   127.1359a   529.0271a
  cbtot       1.0828f   387.0291a   448.0424a   179.1788a   447.6420a
  cgs       286.2369a    91.2744a   156.9535a    45.5198a   198.5580a
  cgd       695.1636a   247.0788a   188.0563a    45.5149a   176.0483a



 subckt    xlat_and2.  xlat_and2.  xlat_and2.  xlat_and2.  xlat_and2.
 element  39:mnb      39:mps      39:mns      40:mp0      40:mn0     
 model     0:nch.25    0:pch.20    0:nch.25    0:pch.20    0:nch.25  
